/*--------------------------------*- C++ -*----------------------------------*\
| =========                 |                                                 |
| \\      /  F ield         | OpenFOAM: The Open Source CFD Toolbox           |
|  \\    /   O peration     | Version:  2.1.0                                 |
|   \\  /    A nd           | Web:      www.OpenFOAM.org                      |
|    \\/     M anipulation  |                                                 |
\*---------------------------------------------------------------------------*/
FoamFile
{
    version     2.0;
    format      ascii;
    class       dictionary;
    object      topoSetDict;
}

// * * * * * * * * * * * * * * * * * * * * * * * * * * * * * * * * * * * * * //
actions
(
    {
        name    leftBottomFaces;
        type    faceSet;
        action  new;
        source  boxToFace;
        sourceInfo
        {
            box (-0.126 -0.126 -1.0) (-0.124 -0.02 1.0);
        }
    }

    {
        name    rightBottomFaces;
        type    faceSet;
        action  new;
        source  boxToFace;
        sourceInfo
        {
            box (-0.126 0.02 -1.0) (-0.124 0.126 1.0);
        }
    }
);

// ************************************************************************* //
