/*--------------------------------*- C++ -*----------------------------------*\
| =========                 |                                                 |
| \      /  F ield         | OpenFOAM: The Open Source CFD Toolbox           |
|  \    /   O peration     | Version:  2.1.x                                 |
|   \  /    A nd           | Web:      www.OpenFOAM.org                      |
|    \/     M anipulation  |                                                 |
\*---------------------------------------------------------------------------*/
FoamFile
{
	version		2.0;
	format		ascii;
	class		dictionary;
	object		probesDict;
}
// * * * * * * * * * * * * * * * * * * * * * * * * * * * * * * * * * * * * //



fields
(
    U
    Us
    voidfraction
);

writeControl   timeStep;
writeInterval  200;


// Locations to be probed.
probeLocations
(
	(-0.050 0.0 0.0)
	(-0.025 0.0 0.0)
        (0.025 0.0 0.0)
        (0.050 0.0 0.0)
);

// * * * * * * * * * * * * * * * * * * * * * * * * * * * * * * * * * * * * //
